10201696
  -OEChem-05062210143D

 63 65  0     0  0  0  0  0  0999 V2000
    5.3195   -1.3635   -1.1326 O   0  0  0  0  0  0  0  0  0  0  0  0
    2.2330    2.5711    0.0994 O   0  0  0  0  0  0  0  0  0  0  0  0
    2.7083    0.3107   -0.1044 N   0  0  0  0  0  0  0  0  0  0  0  0
   -6.4840   -0.3091    0.1734 N   0  0  0  0  0  0  0  0  0  0  0  0
   -3.6930    0.2527   -0.0589 N   0  0  0  0  0  0  0  0  0  0  0  0
    4.0948   -1.7921    0.8001 N   0  0  0  0  0  0  0  0  0  0  0  0
    2.5488   -4.5894   -0.4077 N   0  0  0  0  0  0  0  0  0  0  0  0
    4.1493    0.4394   -0.0814 C   0  0  0  0  0  0  0  0  0  0  0  0
    4.6138    1.0332    1.2550 C   0  0  0  0  0  0  0  0  0  0  0  0
    4.6258    1.2734   -1.2765 C   0  0  0  0  0  0  0  0  0  0  0  0
    6.1137    1.3268    1.2792 C   0  0  0  0  0  0  0  0  0  0  0  0
    6.1251    1.5672   -1.2303 C   0  0  0  0  0  0  0  0  0  0  0  0
    6.5375    2.1923    0.0977 C   0  0  0  0  0  0  0  0  0  0  0  0
    4.6004   -0.9908   -0.2092 C   0  0  0  0  0  0  0  0  0  0  0  0
   -5.5183   -1.4022    0.0063 C   0  0  0  0  0  0  0  0  0  0  0  0
   -6.0232    0.8798   -0.5538 C   0  0  0  0  0  0  0  0  0  0  0  0
   -4.1424   -1.0068    0.5475 C   0  0  0  0  0  0  0  0  0  0  0  0
   -4.6634    1.3512   -0.0322 C   0  0  0  0  0  0  0  0  0  0  0  0
    1.8632    1.4052   -0.0105 C   0  0  0  0  0  0  0  0  0  0  0  0
   -7.8072   -0.7174   -0.2968 C   0  0  0  0  0  0  0  0  0  0  0  0
   -2.3228    0.5364   -0.0459 C   0  0  0  0  0  0  0  0  0  0  0  0
    0.4086    1.1032   -0.0226 C   0  0  0  0  0  0  0  0  0  0  0  0
   -8.8902    0.1275    0.3693 C   0  0  0  0  0  0  0  0  0  0  0  0
   -1.8543    1.6854    0.5916 C   0  0  0  0  0  0  0  0  0  0  0  0
   -1.4256   -0.3289   -0.6718 C   0  0  0  0  0  0  0  0  0  0  0  0
   -0.4887    1.9686    0.6033 C   0  0  0  0  0  0  0  0  0  0  0  0
   -0.0599   -0.0455   -0.6602 C   0  0  0  0  0  0  0  0  0  0  0  0
    4.3604   -3.2095    0.8922 C   0  0  0  0  0  0  0  0  0  0  0  0
  -10.2790   -0.2921   -0.0872 C   0  0  0  0  0  0  0  0  0  0  0  0
    3.3495   -3.9770    0.1672 C   0  0  0  0  0  0  0  0  0  0  0  0
    4.3694    0.3920    2.1096 H   0  0  0  0  0  0  0  0  0  0  0  0
    4.1025    1.9807    1.4597 H   0  0  0  0  0  0  0  0  0  0  0  0
    4.1109    2.2393   -1.3200 H   0  0  0  0  0  0  0  0  0  0  0  0
    4.3864    0.7733   -2.2244 H   0  0  0  0  0  0  0  0  0  0  0  0
    6.6753    0.3849    1.2645 H   0  0  0  0  0  0  0  0  0  0  0  0
    6.3729    1.8339    2.2159 H   0  0  0  0  0  0  0  0  0  0  0  0
    6.7079    0.6558   -1.4000 H   0  0  0  0  0  0  0  0  0  0  0  0
    6.3834    2.2512   -2.0475 H   0  0  0  0  0  0  0  0  0  0  0  0
    6.0825    3.1861    0.1908 H   0  0  0  0  0  0  0  0  0  0  0  0
    7.6238    2.3360    0.1163 H   0  0  0  0  0  0  0  0  0  0  0  0
    2.3127   -0.6237   -0.1296 H   0  0  0  0  0  0  0  0  0  0  0  0
   -5.4318   -1.6842   -1.0518 H   0  0  0  0  0  0  0  0  0  0  0  0
   -5.8536   -2.2903    0.5557 H   0  0  0  0  0  0  0  0  0  0  0  0
   -6.7258    1.7118   -0.4375 H   0  0  0  0  0  0  0  0  0  0  0  0
   -5.9450    0.6699   -1.6293 H   0  0  0  0  0  0  0  0  0  0  0  0
   -3.4469   -1.8286    0.3418 H   0  0  0  0  0  0  0  0  0  0  0  0
   -4.1860   -0.8860    1.6378 H   0  0  0  0  0  0  0  0  0  0  0  0
   -4.7739    1.7278    0.9928 H   0  0  0  0  0  0  0  0  0  0  0  0
   -4.3266    2.1817   -0.6654 H   0  0  0  0  0  0  0  0  0  0  0  0
    3.4593   -1.3971    1.4866 H   0  0  0  0  0  0  0  0  0  0  0  0
   -7.9983   -1.7617   -0.0156 H   0  0  0  0  0  0  0  0  0  0  0  0
   -7.8845   -0.6722   -1.3908 H   0  0  0  0  0  0  0  0  0  0  0  0
   -8.7641    1.1903    0.1372 H   0  0  0  0  0  0  0  0  0  0  0  0
   -8.8278    0.0264    1.4598 H   0  0  0  0  0  0  0  0  0  0  0  0
   -2.5224    2.3735    1.1017 H   0  0  0  0  0  0  0  0  0  0  0  0
   -1.7734   -1.2175   -1.1924 H   0  0  0  0  0  0  0  0  0  0  0  0
   -0.1420    2.8645    1.1116 H   0  0  0  0  0  0  0  0  0  0  0  0
    0.5983   -0.7268   -1.1910 H   0  0  0  0  0  0  0  0  0  0  0  0
    5.3585   -3.4150    0.4920 H   0  0  0  0  0  0  0  0  0  0  0  0
    4.3567   -3.4723    1.9545 H   0  0  0  0  0  0  0  0  0  0  0  0
  -10.3896   -0.1705   -1.1696 H   0  0  0  0  0  0  0  0  0  0  0  0
  -10.4753   -1.3395    0.1632 H   0  0  0  0  0  0  0  0  0  0  0  0
  -11.0409    0.3220    0.4031 H   0  0  0  0  0  0  0  0  0  0  0  0
  1 14  2  0  0  0  0
  2 19  2  0  0  0  0
  3  8  1  0  0  0  0
  3 19  1  0  0  0  0
  3 41  1  0  0  0  0
  4 15  1  0  0  0  0
  4 16  1  0  0  0  0
  4 20  1  0  0  0  0
  5 17  1  0  0  0  0
  5 18  1  0  0  0  0
  5 21  1  0  0  0  0
  6 14  1  0  0  0  0
  6 28  1  0  0  0  0
  6 50  1  0  0  0  0
  7 30  3  0  0  0  0
  8  9  1  0  0  0  0
  8 10  1  0  0  0  0
  8 14  1  0  0  0  0
  9 11  1  0  0  0  0
  9 31  1  0  0  0  0
  9 32  1  0  0  0  0
 10 12  1  0  0  0  0
 10 33  1  0  0  0  0
 10 34  1  0  0  0  0
 11 13  1  0  0  0  0
 11 35  1  0  0  0  0
 11 36  1  0  0  0  0
 12 13  1  0  0  0  0
 12 37  1  0  0  0  0
 12 38  1  0  0  0  0
 13 39  1  0  0  0  0
 13 40  1  0  0  0  0
 15 17  1  0  0  0  0
 15 42  1  0  0  0  0
 15 43  1  0  0  0  0
 16 18  1  0  0  0  0
 16 44  1  0  0  0  0
 16 45  1  0  0  0  0
 17 46  1  0  0  0  0
 17 47  1  0  0  0  0
 18 48  1  0  0  0  0
 18 49  1  0  0  0  0
 19 22  1  0  0  0  0
 20 23  1  0  0  0  0
 20 51  1  0  0  0  0
 20 52  1  0  0  0  0
 21 24  2  0  0  0  0
 21 25  1  0  0  0  0
 22 26  2  0  0  0  0
 22 27  1  0  0  0  0
 23 29  1  0  0  0  0
 23 53  1  0  0  0  0
 23 54  1  0  0  0  0
 24 26  1  0  0  0  0
 24 55  1  0  0  0  0
 25 27  2  0  0  0  0
 25 56  1  0  0  0  0
 26 57  1  0  0  0  0
 27 58  1  0  0  0  0
 28 30  1  0  0  0  0
 28 59  1  0  0  0  0
 28 60  1  0  0  0  0
 29 61  1  0  0  0  0
 29 62  1  0  0  0  0
 29 63  1  0  0  0  0
M  END
> <PUBCHEM_COMPOUND_CID>
10201696

> <PUBCHEM_CONFORMER_RMSD>
1

> <PUBCHEM_CONFORMER_DIVERSEORDER>
1
48
37
45
52
22
42
26
30
21
49
14
53
39
44
36
19
6
47
4
33
51
34
17
18
46
12
35
24
27
13
41
7
11
38
5
50
32
29
25
15
23
10
20
43
16
40
31
28
9
2
8
3

> <PUBCHEM_MMFF94_PARTIAL_CHARGES>
29
1 -0.57
14 0.57
15 0.27
16 0.27
17 0.37
18 0.37
19 0.54
2 -0.57
20 0.27
21 0.1
22 0.09
24 -0.15
25 -0.15
26 -0.15
27 -0.15
28 0.5
3 -0.73
30 0.36
4 -0.81
41 0.37
5 -0.84
50 0.37
55 0.15
56 0.15
57 0.15
58 0.15
6 -0.73
7 -0.56
8 0.36

> <PUBCHEM_EFFECTIVE_ROTOR_COUNT>
11.4

> <PUBCHEM_PHARMACOPHORE_FEATURES>
11
1 1 acceptor
1 2 acceptor
1 29 hydrophobe
1 3 donor
1 4 cation
1 5 cation
1 6 donor
1 7 acceptor
6 21 22 24 25 26 27 rings
6 4 5 15 16 17 18 rings
6 8 9 10 11 12 13 rings

> <PUBCHEM_HEAVY_ATOM_COUNT>
30

> <PUBCHEM_ATOM_DEF_STEREO_COUNT>
0

> <PUBCHEM_ATOM_UDEF_STEREO_COUNT>
0

> <PUBCHEM_BOND_DEF_STEREO_COUNT>
0

> <PUBCHEM_BOND_UDEF_STEREO_COUNT>
0

> <PUBCHEM_ISOTOPIC_ATOM_COUNT>
0

> <PUBCHEM_COMPONENT_COUNT>
1

> <PUBCHEM_CACTVS_TAUTO_COUNT>
4

> <PUBCHEM_CONFORMER_ID>
009BAA6000000001

> <PUBCHEM_MMFF94_ENERGY>
77.463

> <PUBCHEM_FEATURE_SELFOVERLAP>
55.83

> <PUBCHEM_SHAPE_FINGERPRINT>
10050765 1 18195247715881574549
11135609 127 18117279366234209012
11719270 70 18408881854685330970
12107183 9 17692256240130310776
12516196 113 18202002148638679137
13073987 5 18341047428421734497
13533116 47 18341611486555462714
1361 2 18409449185031218770
13617811 41 18335139812675722884
13835254 42 18337953385775147972
14118638 360 18413393111685976481
14251764 18 18272654558890727153
14675020 138 18270102613961554536
15183329 4 18186804681997801985
15419008 42 17825644686927368950
15537594 2 18201999966921244006
17492 89 18122623860596943258
18335252 114 9151177532165686618
18335252 98 18333731321142409285
19301679 30 18335133142401172913
19841028 212 18335981986969074251
20771845 140 18271230669958180578
20771845 171 17968105218189948222
21130935 74 18340769248238509747
21360442 67 18333735744985422810
22149856 69 18411706448175024281
23559900 14 18335699511655055001
24771750 20 17679596802440238549
25269216 80 15430906322197352899
3004659 81 18186803552568745400
335352 9 18342175618548050181
34797466 226 16950003647147360725
397830 11 12103264067567999749
4073 2 18190744326464443657
4340502 62 18410289242669985844
5104073 3 18129942274030854104
54076057 255 12895067479538848602
57359948 33 17749107764296249140
6441014 3 17184745797354396562

> <PUBCHEM_SHAPE_MULTIPOLES>
580.74
24.84
3.43
0.99
54.02
5.04
-0.01
-0.06
-0.07
-7.35
0.24
-1.36
-0.13
-0.28

> <PUBCHEM_SHAPE_SELFOVERLAP>
1205.389

> <PUBCHEM_SHAPE_VOLUME>
325.1

> <PUBCHEM_COORDINATE_TYPE>
2
5
10

$$$$
