10345214
  -OEChem-05062210143D

 63 65  0     1  0  0  0  0  0999 V2000
    2.6892    3.0733    1.6318 F   0  0  0  0  0  0  0  0  0  0  0  0
    0.3747    4.5184    1.6397 F   0  0  0  0  0  0  0  0  0  0  0  0
    5.3889   -0.4575   -0.1575 O   0  0  0  0  0  0  0  0  0  0  0  0
    3.1099    1.1313   -0.2729 O   0  0  0  0  0  0  0  0  0  0  0  0
   -4.2369   -0.1299   -2.5631 O   0  0  0  0  0  0  0  0  0  0  0  0
   -3.2867    1.3443   -4.0063 O   0  0  0  0  0  0  0  0  0  0  0  0
    2.1586   -2.2423    0.0927 N   0  0  0  0  0  0  0  0  0  0  0  0
   -0.8491   -2.4274    0.0845 C   0  0  0  0  0  0  0  0  0  0  0  0
    0.1034   -3.5622   -0.2580 C   0  0  0  0  0  0  0  0  0  0  0  0
    1.4602   -3.1249   -0.8498 C   0  0  0  0  0  0  0  0  0  0  0  0
   -0.2865   -1.4867    1.1717 C   0  0  0  0  0  0  0  0  0  0  0  0
   -2.2110   -2.9320    0.6083 C   0  0  0  0  0  0  0  0  0  0  0  0
   -1.5447   -0.9725    1.7972 C   0  0  0  0  0  0  0  0  0  0  0  0
   -2.6339   -1.7904    1.4783 C   0  0  0  0  0  0  0  0  0  0  0  0
    1.2053   -2.3459   -2.1512 C   0  0  0  0  0  0  0  0  0  0  0  0
    2.3673   -4.3256   -1.1500 C   0  0  0  0  0  0  0  0  0  0  0  0
    3.4220   -1.7957   -0.4683 C   0  0  0  0  0  0  0  0  0  0  0  0
   -1.6948    0.1247    2.6287 C   0  0  0  0  0  0  0  0  0  0  0  0
   -3.8962   -1.5282    1.9840 C   0  0  0  0  0  0  0  0  0  0  0  0
    4.1838   -0.8765    0.4893 C   0  0  2  0  0  0  0  0  0  0  0  0
   -2.9665    0.4040    3.1337 C   0  0  0  0  0  0  0  0  0  0  0  0
   -4.0595   -0.4167    2.8135 C   0  0  0  0  0  0  0  0  0  0  0  0
    3.3921    0.3651    0.8941 C   0  0  0  0  0  0  0  0  0  0  0  0
    1.9492    1.8577   -0.2660 C   0  0  0  0  0  0  0  0  0  0  0  0
    0.9771    1.6104   -1.2294 C   0  0  0  0  0  0  0  0  0  0  0  0
   -0.2054    2.3499   -1.2236 C   0  0  0  0  0  0  0  0  0  0  0  0
    1.7529    2.8357    0.7030 C   0  0  0  0  0  0  0  0  0  0  0  0
   -1.2534    2.0894   -2.2522 C   0  0  0  0  0  0  0  0  0  0  0  0
   -0.4091    3.3323   -0.2544 C   0  0  0  0  0  0  0  0  0  0  0  0
    0.5701    3.5753    0.7089 C   0  0  0  0  0  0  0  0  0  0  0  0
   -2.2775    1.0274   -1.8346 C   0  0  0  0  0  0  0  0  0  0  0  0
   -3.2936    0.7753   -2.9221 C   0  0  0  0  0  0  0  0  0  0  0  0
   -1.0577   -1.8375   -0.8157 H   0  0  0  0  0  0  0  0  0  0  0  0
   -0.3967   -4.2357   -0.9676 H   0  0  0  0  0  0  0  0  0  0  0  0
    0.2847   -4.1664    0.6422 H   0  0  0  0  0  0  0  0  0  0  0  0
    0.2932   -2.0127    1.9373 H   0  0  0  0  0  0  0  0  0  0  0  0
    0.2775   -0.6576    0.7398 H   0  0  0  0  0  0  0  0  0  0  0  0
   -2.9116   -3.1052   -0.2142 H   0  0  0  0  0  0  0  0  0  0  0  0
   -2.1110   -3.8418    1.2099 H   0  0  0  0  0  0  0  0  0  0  0  0
    2.3314   -2.7375    0.9675 H   0  0  0  0  0  0  0  0  0  0  0  0
    2.0998   -2.2327   -2.7733 H   0  0  0  0  0  0  0  0  0  0  0  0
    0.7926   -1.3507   -1.9685 H   0  0  0  0  0  0  0  0  0  0  0  0
    0.4804   -2.8810   -2.7776 H   0  0  0  0  0  0  0  0  0  0  0  0
    1.7939   -5.1038   -1.6697 H   0  0  0  0  0  0  0  0  0  0  0  0
    2.7526   -4.7837   -0.2314 H   0  0  0  0  0  0  0  0  0  0  0  0
    3.2112   -4.0942   -1.8080 H   0  0  0  0  0  0  0  0  0  0  0  0
    3.3001   -1.2418   -1.4046 H   0  0  0  0  0  0  0  0  0  0  0  0
    4.1068   -2.6226   -0.6833 H   0  0  0  0  0  0  0  0  0  0  0  0
   -0.8495    0.7547    2.8844 H   0  0  0  0  0  0  0  0  0  0  0  0
   -4.7399   -2.1671    1.7466 H   0  0  0  0  0  0  0  0  0  0  0  0
    4.4687   -1.4363    1.3882 H   0  0  0  0  0  0  0  0  0  0  0  0
   -3.1117    1.2616    3.7849 H   0  0  0  0  0  0  0  0  0  0  0  0
   -5.0405   -0.1868    3.2204 H   0  0  0  0  0  0  0  0  0  0  0  0
    4.0078    0.9843    1.5570 H   0  0  0  0  0  0  0  0  0  0  0  0
    2.4787    0.0884    1.4331 H   0  0  0  0  0  0  0  0  0  0  0  0
    5.8820    0.0958    0.4722 H   0  0  0  0  0  0  0  0  0  0  0  0
    1.1503    0.8565   -1.9906 H   0  0  0  0  0  0  0  0  0  0  0  0
   -0.7710    1.7887   -3.1924 H   0  0  0  0  0  0  0  0  0  0  0  0
   -1.7720    3.0278   -2.4915 H   0  0  0  0  0  0  0  0  0  0  0  0
   -1.3272    3.9134   -0.2373 H   0  0  0  0  0  0  0  0  0  0  0  0
   -1.7678    0.0837   -1.6254 H   0  0  0  0  0  0  0  0  0  0  0  0
   -2.8083    1.3501   -0.9319 H   0  0  0  0  0  0  0  0  0  0  0  0
   -4.8966   -0.2735   -3.2748 H   0  0  0  0  0  0  0  0  0  0  0  0
  1 27  1  0  0  0  0
  2 30  1  0  0  0  0
  3 20  1  0  0  0  0
  3 56  1  0  0  0  0
  4 23  1  0  0  0  0
  4 24  1  0  0  0  0
  5 32  1  0  0  0  0
  5 63  1  0  0  0  0
  6 32  2  0  0  0  0
  7 10  1  0  0  0  0
  7 17  1  0  0  0  0
  7 40  1  0  0  0  0
  8  9  1  0  0  0  0
  8 11  1  0  0  0  0
  8 12  1  0  0  0  0
  8 33  1  0  0  0  0
  9 10  1  0  0  0  0
  9 34  1  0  0  0  0
  9 35  1  0  0  0  0
 10 15  1  0  0  0  0
 10 16  1  0  0  0  0
 11 13  1  0  0  0  0
 11 36  1  0  0  0  0
 11 37  1  0  0  0  0
 12 14  1  0  0  0  0
 12 38  1  0  0  0  0
 12 39  1  0  0  0  0
 13 14  1  0  0  0  0
 13 18  2  0  0  0  0
 14 19  2  0  0  0  0
 15 41  1  0  0  0  0
 15 42  1  0  0  0  0
 15 43  1  0  0  0  0
 16 44  1  0  0  0  0
 16 45  1  0  0  0  0
 16 46  1  0  0  0  0
 17 20  1  0  0  0  0
 17 47  1  0  0  0  0
 17 48  1  0  0  0  0
 18 21  1  0  0  0  0
 18 49  1  0  0  0  0
 19 22  1  0  0  0  0
 19 50  1  0  0  0  0
 20 23  1  0  0  0  0
 20 51  1  0  0  0  0
 21 22  2  0  0  0  0
 21 52  1  0  0  0  0
 22 53  1  0  0  0  0
 23 54  1  0  0  0  0
 23 55  1  0  0  0  0
 24 25  1  0  0  0  0
 24 27  2  0  0  0  0
 25 26  2  0  0  0  0
 25 57  1  0  0  0  0
 26 28  1  0  0  0  0
 26 29  1  0  0  0  0
 27 30  1  0  0  0  0
 28 31  1  0  0  0  0
 28 58  1  0  0  0  0
 28 59  1  0  0  0  0
 29 30  2  0  0  0  0
 29 60  1  0  0  0  0
 31 32  1  0  0  0  0
 31 61  1  0  0  0  0
 31 62  1  0  0  0  0
M  END
> <PUBCHEM_COMPOUND_CID>
10345214

> <PUBCHEM_CONFORMER_RMSD>
1.2

> <PUBCHEM_CONFORMER_DIVERSEORDER>
1
285
57
311
353
117
218
346
158
186
249
26
296
163
336
264
260
223
165
161
291
24
116
100
170
347
230
2
220
312
143
4
335
40
131
299
124
148
78
97
238
16
342
306
326
351
256
274
301
180
31
133
253
189
310
39
168
339
112
145
20
280
10
206
300
192
297
137
30
293
329
344
107
226
273
278
345
132
140
184
221
76
49
212
250
205
254
6
281
169
261
127
178
120
46
237
70
156
105
304
222
54
142
354
160
182
119
71
324
171
331
89
341
41
245
147
213
349
86
108
308
3
204
66
313
343
48
56
200
332
323
144
21
164
62
247
185
234
350
243
266
43
327
255
61
88
159
231
194
174
17
29
348
236
80
286
320
18
134
125
179
47
106
203
53
69
211
288
284
173
208
196
224
337
199
42
307
314
149
14
209
126
111
305
141
175
25
36
298
244
130
318
93
321
104
233
269
176
227
85
45
258
232
91
128
352
330
235
96
82
315
8
121
201
240
277
177
81
338
295
239
114
154
319
129
183
75
279
287
118
328
64
37
146
302
7
333
316
289
38
317
90
157
67
33
22
52
23
99
139
294
259
166
282
242
252
292
241
181
92
115
51
246
210
102
5
77
268
150
50
83
58
123
202
27
193
19
162
248
322
151
101
270
276
263
207
44
28
136
262
188
98
309
155
267
63
251
219
94
113
9
122
191
172
271
272
283
135
59
34
167
187
290
13
138
195
228
110
216
152
12
68
303
74
35
217
109
73
55
87
265
355
153
198
65
334
215
95
229
72
275
325
32
190
214
60
257
15
197
225
79
340
11
84
103

> <PUBCHEM_MMFF94_PARTIAL_CHARGES>
37
1 -0.19
10 0.27
11 0.14
12 0.14
13 -0.14
14 -0.14
17 0.27
18 -0.15
19 -0.15
2 -0.19
20 0.28
21 -0.15
22 -0.15
23 0.28
24 0.08
25 -0.15
26 -0.14
27 0.19
28 0.14
29 -0.15
3 -0.68
30 0.19
31 0.06
32 0.66
4 -0.36
40 0.36
49 0.15
5 -0.65
50 0.15
52 0.15
53 0.15
56 0.4
57 0.15
6 -0.57
60 0.15
63 0.5
7 -0.9

> <PUBCHEM_EFFECTIVE_ROTOR_COUNT>
11.6

> <PUBCHEM_PHARMACOPHORE_FEATURES>
12
1 3 acceptor
1 3 donor
1 4 acceptor
1 5 acceptor
1 6 acceptor
1 7 cation
1 7 donor
3 10 15 16 hydrophobe
3 5 6 32 anion
5 8 11 12 13 14 rings
6 13 14 18 19 21 22 rings
6 24 25 26 27 29 30 rings

> <PUBCHEM_HEAVY_ATOM_COUNT>
32

> <PUBCHEM_ATOM_DEF_STEREO_COUNT>
1

> <PUBCHEM_ATOM_UDEF_STEREO_COUNT>
0

> <PUBCHEM_BOND_DEF_STEREO_COUNT>
0

> <PUBCHEM_BOND_UDEF_STEREO_COUNT>
0

> <PUBCHEM_ISOTOPIC_ATOM_COUNT>
0

> <PUBCHEM_COMPONENT_COUNT>
1

> <PUBCHEM_CACTVS_TAUTO_COUNT>
1

> <PUBCHEM_CONFORMER_ID>
009DDAFE00000001

> <PUBCHEM_MMFF94_ENERGY>
80.6918

> <PUBCHEM_FEATURE_SELFOVERLAP>
61.04

> <PUBCHEM_SHAPE_FINGERPRINT>
10119406 146 15743616899166428678
10816530 23 17402020784635763533
11244481 83 15797685937421787107
11421498 54 15912746393115562486
12156800 1 15459232155289050373
12655364 131 17558244761377610472
13402501 40 18187076248447843119
13965767 371 18048889785534261441
14279260 333 14950138897153980271
15274700 242 13216530057870547419
19319366 153 15813140122984718270
20600515 1 16953983883128572003
20764821 26 17904778673699179282
21795232 40 18197484332748621976
3380486 145 18408889520490297870
35225 105 16533187314509396495
437795 51 17971185925433703229
4409770 3 18188208689648152730
4742675 86 18129369411424645594
56638632 10 18129665330191996888
57527585 103 17682693821625579154
6376802 137 17623253145618932930

> <PUBCHEM_SHAPE_MULTIPOLES>
615.54
6.99
5.58
3.4
1.75
1.03
-1.95
-2.57
1.32
2.53
-0.17
-5.27
1.36
3.23

> <PUBCHEM_SHAPE_SELFOVERLAP>
1299.769

> <PUBCHEM_SHAPE_VOLUME>
348

> <PUBCHEM_COORDINATE_TYPE>
2
5
10

$$$$
