44137686
  -OEChem-05062210143D

 35 36  0     1  0  0  0  0  0999 V2000
   -3.3822   -2.4785    1.4424 F   0  0  0  0  0  0  0  0  0  0  0  0
   -4.3982   -1.3514   -0.1209 F   0  0  0  0  0  0  0  0  0  0  0  0
   -2.5668   -2.4464   -0.5819 F   0  0  0  0  0  0  0  0  0  0  0  0
    1.7751   -2.3236   -1.1957 F   0  0  0  0  0  0  0  0  0  0  0  0
    3.7063   -1.3825   -1.5308 F   0  0  0  0  0  0  0  0  0  0  0  0
    3.2354   -2.2232    0.4122 F   0  0  0  0  0  0  0  0  0  0  0  0
   -3.0658    0.2421    1.7339 O   0  0  0  0  0  0  0  0  0  0  0  0
   -1.1551    1.4773   -0.2606 N   0  0  3  0  0  0  0  0  0  0  0  0
    5.4238    0.3952    0.8658 N   0  0  0  0  0  0  0  0  0  0  0  0
   -2.1800    0.4480   -0.4904 C   0  0  2  0  0  0  0  0  0  0  0  0
   -3.4615    1.2631   -0.7415 C   0  0  0  0  0  0  0  0  0  0  0  0
   -2.9462    2.5707   -1.3133 C   0  0  0  0  0  0  0  0  0  0  0  0
   -1.6817    2.8212   -0.4990 C   0  0  0  0  0  0  0  0  0  0  0  0
   -2.3755   -0.4689    0.7126 C   0  0  2  0  0  0  0  0  0  0  0  0
    0.1872    1.2474   -0.0350 C   0  0  0  0  0  0  0  0  0  0  0  0
   -3.1828   -1.6979    0.3577 C   0  0  0  0  0  0  0  0  0  0  0  0
    0.7619    0.0360   -0.4197 C   0  0  0  0  0  0  0  0  0  0  0  0
    0.9688    2.2267    0.5782 C   0  0  0  0  0  0  0  0  0  0  0  0
    2.1183   -0.1960   -0.1916 C   0  0  0  0  0  0  0  0  0  0  0  0
    2.3252    1.9945    0.8066 C   0  0  0  0  0  0  0  0  0  0  0  0
    2.9000    0.7832    0.4215 C   0  0  0  0  0  0  0  0  0  0  0  0
    2.7001   -1.5059   -0.6176 C   0  0  0  0  0  0  0  0  0  0  0  0
    4.2937    0.5691    0.6669 C   0  0  0  0  0  0  0  0  0  0  0  0
   -1.9262   -0.1159   -1.3963 H   0  0  0  0  0  0  0  0  0  0  0  0
   -4.0466    1.4914    0.1544 H   0  0  0  0  0  0  0  0  0  0  0  0
   -4.1312    0.7563   -1.4440 H   0  0  0  0  0  0  0  0  0  0  0  0
   -2.6938    2.4419   -2.3729 H   0  0  0  0  0  0  0  0  0  0  0  0
   -3.6676    3.3882   -1.2297 H   0  0  0  0  0  0  0  0  0  0  0  0
   -0.9923    3.4572   -1.0652 H   0  0  0  0  0  0  0  0  0  0  0  0
   -1.9214    3.3045    0.4548 H   0  0  0  0  0  0  0  0  0  0  0  0
   -1.4211   -0.8006    1.1329 H   0  0  0  0  0  0  0  0  0  0  0  0
    0.1661   -0.7295   -0.9076 H   0  0  0  0  0  0  0  0  0  0  0  0
    0.5475    3.1748    0.9012 H   0  0  0  0  0  0  0  0  0  0  0  0
   -2.5060    0.9940    1.9940 H   0  0  0  0  0  0  0  0  0  0  0  0
    2.9199    2.7670    1.2884 H   0  0  0  0  0  0  0  0  0  0  0  0
  1 16  1  0  0  0  0
  2 16  1  0  0  0  0
  3 16  1  0  0  0  0
  4 22  1  0  0  0  0
  5 22  1  0  0  0  0
  6 22  1  0  0  0  0
  7 14  1  0  0  0  0
  7 34  1  0  0  0  0
  8 10  1  0  0  0  0
  8 13  1  0  0  0  0
  8 15  1  0  0  0  0
  9 23  3  0  0  0  0
 10 11  1  0  0  0  0
 10 14  1  0  0  0  0
 10 24  1  0  0  0  0
 11 12  1  0  0  0  0
 11 25  1  0  0  0  0
 11 26  1  0  0  0  0
 12 13  1  0  0  0  0
 12 27  1  0  0  0  0
 12 28  1  0  0  0  0
 13 29  1  0  0  0  0
 13 30  1  0  0  0  0
 14 16  1  0  0  0  0
 14 31  1  0  0  0  0
 15 17  2  0  0  0  0
 15 18  1  0  0  0  0
 17 19  1  0  0  0  0
 17 32  1  0  0  0  0
 18 20  2  0  0  0  0
 18 33  1  0  0  0  0
 19 21  2  0  0  0  0
 19 22  1  0  0  0  0
 20 21  1  0  0  0  0
 20 35  1  0  0  0  0
 21 23  1  0  0  0  0
M  END
> <PUBCHEM_COMPOUND_CID>
44137686

> <PUBCHEM_CONFORMER_RMSD>
0.8

> <PUBCHEM_CONFORMER_DIVERSEORDER>
1
11
9
14
6
3
13
12
10
2
5
4
8
7

> <PUBCHEM_MMFF94_PARTIAL_CHARGES>
25
1 -0.34
10 0.37
13 0.37
14 0.28
15 0.1
16 1.02
17 -0.15
18 -0.15
19 -0.14
2 -0.34
20 -0.15
21 0.07
22 1.16
23 0.48
3 -0.34
32 0.15
33 0.15
34 0.4
35 0.15
4 -0.34
5 -0.34
6 -0.34
7 -0.68
8 -0.84
9 -0.56

> <PUBCHEM_EFFECTIVE_ROTOR_COUNT>
5

> <PUBCHEM_PHARMACOPHORE_FEATURES>
6
1 7 acceptor
1 7 donor
1 8 cation
1 9 acceptor
5 8 10 11 12 13 rings
6 15 17 18 19 20 21 rings

> <PUBCHEM_HEAVY_ATOM_COUNT>
23

> <PUBCHEM_ATOM_DEF_STEREO_COUNT>
2

> <PUBCHEM_ATOM_UDEF_STEREO_COUNT>
0

> <PUBCHEM_BOND_DEF_STEREO_COUNT>
0

> <PUBCHEM_BOND_UDEF_STEREO_COUNT>
0

> <PUBCHEM_ISOTOPIC_ATOM_COUNT>
0

> <PUBCHEM_COMPONENT_COUNT>
1

> <PUBCHEM_CACTVS_TAUTO_COUNT>
1

> <PUBCHEM_CONFORMER_ID>
02A17CD600000001

> <PUBCHEM_MMFF94_ENERGY>
57.7518

> <PUBCHEM_FEATURE_SELFOVERLAP>
30.446

> <PUBCHEM_SHAPE_FINGERPRINT>
10366900 7 18337676433049664488
10616163 171 18410006654473942716
10675989 125 17257634639626152980
1100329 8 16322029314603930857
11552529 35 17845936350528578963
12363563 72 17751082620576947587
12506688 2 18342178881726260368
12553582 1 18190480409345797671
12596602 18 15697427961785758571
12633257 1 18199194975087985011
12714826 92 18114760247602454105
13140716 1 18127129676205457296
13224815 77 18334579053117991172
13296908 3 18410856516869698604
13402501 40 18411697686367594583
14223421 5 18412543231978229124
14790565 3 17112131296344654525
15099037 37 18335131025103485216
15375358 24 18268136583390580004
15635459 17 18270401585722567830
17357779 13 18335971073741251533
17980427 23 17603307076941450828
1813 80 17604441798563263485
19049666 15 18339357448879336173
19141452 34 18341336682237852251
19591789 44 18198057191544782284
200 152 17560787858283009533
20279233 1 18410852131634353332
20600515 1 16663999919502415153
20645477 70 17773867606776650284
221490 88 18412266117004993838
22182313 1 18201441359522630798
23402539 116 17822001026200856224
23557571 272 18334852835745250361
23559900 14 18266171726537174246
2748010 2 18271239435363789692
3084891 72 17689991233097075829
5104073 3 18341322306818880448
6049 1 18411987940020250356
81228 2 18186523224412177961
8809292 202 18266177236342223525
9709674 26 18339916030798231261

> <PUBCHEM_SHAPE_MULTIPOLES>
413.86
8.61
3.12
1.19
3.94
0.35
-0.06
2.26
-0.96
-1.84
0.34
-0.23
0.18
2.05

> <PUBCHEM_SHAPE_SELFOVERLAP>
888.456

> <PUBCHEM_SHAPE_VOLUME>
230.1

> <PUBCHEM_COORDINATE_TYPE>
2
5
10

$$$$
