6918602
  -OEChem-05062210143D

 70 73  0     1  0  0  0  0  0999 V2000
    5.3677    1.1248   -1.5902 S   0  0  0  0  0  0  0  0  0  0  0  0
    2.5417   -1.8463    1.3572 O   0  0  0  0  0  0  0  0  0  0  0  0
    5.5274    2.5561   -1.7160 O   0  0  0  0  0  0  0  0  0  0  0  0
    5.2203    0.2815   -2.7552 O   0  0  0  0  0  0  0  0  0  0  0  0
   -1.0970    0.0083   -1.2823 O   0  0  0  0  0  0  0  0  0  0  0  0
   -5.6377    0.2335   -0.5331 O   0  0  0  0  0  0  0  0  0  0  0  0
   -3.1791    0.0292    2.0306 O   0  0  0  0  0  0  0  0  0  0  0  0
    4.0729    0.8034   -0.5084 N   0  0  2  0  0  0  0  0  0  0  0  0
    0.2198   -0.8895    0.4073 N   0  0  0  0  0  0  0  0  0  0  0  0
   -3.2886   -1.0208   -0.0100 N   0  0  0  0  0  0  0  0  0  0  0  0
    7.2747    1.4477    0.1618 N   0  0  0  0  0  0  0  0  0  0  0  0
    3.8446    1.8318    0.5625 C   0  0  1  0  0  0  0  0  0  0  0  0
    2.3652    2.2399    0.5975 C   0  0  0  0  0  0  0  0  0  0  0  0
    1.3660    1.1752    1.0540 C   0  0  0  0  0  0  0  0  0  0  0  0
    1.3910   -0.0787    0.1887 C   0  0  1  0  0  0  0  0  0  0  0  0
    3.8981   -0.6230   -0.1546 C   0  0  0  0  0  0  0  0  0  0  0  0
    2.6011   -0.9259    0.5386 C   0  0  0  0  0  0  0  0  0  0  0  0
    4.4252    1.4371    1.9159 C   0  0  0  0  0  0  0  0  0  0  0  0
   -2.0380   -1.7194    0.1353 C   0  0  2  0  0  0  0  0  0  0  0  0
   -0.9394   -0.7798   -0.3521 C   0  0  0  0  0  0  0  0  0  0  0  0
   -2.0083   -3.0292   -0.6628 C   0  0  0  0  0  0  0  0  0  0  0  0
   -3.1101   -4.0408   -0.2869 C   0  0  0  0  0  0  0  0  0  0  0  0
    6.7190    0.5093   -0.6371 C   0  0  0  0  0  0  0  0  0  0  0  0
   -2.9766   -4.4246    1.1895 C   0  0  0  0  0  0  0  0  0  0  0  0
   -3.0643   -5.3006   -1.1526 C   0  0  0  0  0  0  0  0  0  0  0  0
    7.1549   -0.8039   -0.7106 C   0  0  0  0  0  0  0  0  0  0  0  0
   -3.7872   -0.1696    0.9773 C   0  0  0  0  0  0  0  0  0  0  0  0
    8.2302   -1.1781    0.0875 C   0  0  0  0  0  0  0  0  0  0  0  0
   -5.0603    0.4966    0.6682 C   0  0  0  0  0  0  0  0  0  0  0  0
    8.3177    1.0470    0.9230 C   0  0  0  0  0  0  0  0  0  0  0  0
    8.8283   -0.2410    0.9228 C   0  0  0  0  0  0  0  0  0  0  0  0
   -5.8247    1.3814    1.3929 C   0  0  0  0  0  0  0  0  0  0  0  0
   -6.9527    1.6890    0.5875 C   0  0  0  0  0  0  0  0  0  0  0  0
   -6.7905    0.9584   -0.5851 C   0  0  0  0  0  0  0  0  0  0  0  0
   -8.0914    2.5030    0.7196 C   0  0  0  0  0  0  0  0  0  0  0  0
   -7.6903    0.9786   -1.6494 C   0  0  0  0  0  0  0  0  0  0  0  0
   -9.0143    2.5445   -0.3345 C   0  0  0  0  0  0  0  0  0  0  0  0
   -8.8151    1.7948   -1.4966 C   0  0  0  0  0  0  0  0  0  0  0  0
    4.3701    2.7519    0.2842 H   0  0  0  0  0  0  0  0  0  0  0  0
    2.2581    3.1074    1.2617 H   0  0  0  0  0  0  0  0  0  0  0  0
    2.0708    2.5851   -0.4027 H   0  0  0  0  0  0  0  0  0  0  0  0
    0.3644    1.6238    1.0201 H   0  0  0  0  0  0  0  0  0  0  0  0
    1.5456    0.9220    2.1063 H   0  0  0  0  0  0  0  0  0  0  0  0
    1.4235    0.1731   -0.8774 H   0  0  0  0  0  0  0  0  0  0  0  0
    4.7000   -0.9524    0.5121 H   0  0  0  0  0  0  0  0  0  0  0  0
    3.9094   -1.2368   -1.0614 H   0  0  0  0  0  0  0  0  0  0  0  0
    4.3479    2.2774    2.6152 H   0  0  0  0  0  0  0  0  0  0  0  0
    5.4755    1.1554    1.8604 H   0  0  0  0  0  0  0  0  0  0  0  0
    3.8939    0.5971    2.3716 H   0  0  0  0  0  0  0  0  0  0  0  0
    0.2441   -1.5604    1.1702 H   0  0  0  0  0  0  0  0  0  0  0  0
   -1.8746   -1.9203    1.1997 H   0  0  0  0  0  0  0  0  0  0  0  0
   -2.1025   -2.7987   -1.7331 H   0  0  0  0  0  0  0  0  0  0  0  0
   -1.0230   -3.5000   -0.5458 H   0  0  0  0  0  0  0  0  0  0  0  0
   -4.0930   -3.5770   -0.4354 H   0  0  0  0  0  0  0  0  0  0  0  0
   -3.7932   -1.1049   -0.8883 H   0  0  0  0  0  0  0  0  0  0  0  0
   -1.9704   -4.7920    1.4183 H   0  0  0  0  0  0  0  0  0  0  0  0
   -3.6885   -5.2165    1.4478 H   0  0  0  0  0  0  0  0  0  0  0  0
   -3.1943   -3.5792    1.8488 H   0  0  0  0  0  0  0  0  0  0  0  0
   -3.1787   -5.0449   -2.2112 H   0  0  0  0  0  0  0  0  0  0  0  0
   -3.8724   -5.9895   -0.8849 H   0  0  0  0  0  0  0  0  0  0  0  0
   -2.1125   -5.8292   -1.0332 H   0  0  0  0  0  0  0  0  0  0  0  0
    6.6837   -1.5295   -1.3640 H   0  0  0  0  0  0  0  0  0  0  0  0
    8.6013   -2.1982    0.0590 H   0  0  0  0  0  0  0  0  0  0  0  0
    8.7477    1.8150    1.5572 H   0  0  0  0  0  0  0  0  0  0  0  0
    9.6673   -0.5105    1.5539 H   0  0  0  0  0  0  0  0  0  0  0  0
   -5.6011    1.7613    2.3801 H   0  0  0  0  0  0  0  0  0  0  0  0
   -8.2596    3.0909    1.6168 H   0  0  0  0  0  0  0  0  0  0  0  0
   -7.5288    0.3946   -2.5476 H   0  0  0  0  0  0  0  0  0  0  0  0
   -9.8989    3.1700   -0.2452 H   0  0  0  0  0  0  0  0  0  0  0  0
   -9.5482    1.8467   -2.2979 H   0  0  0  0  0  0  0  0  0  0  0  0
  1  3  2  0  0  0  0
  1  4  2  0  0  0  0
  1  8  1  0  0  0  0
  1 23  1  0  0  0  0
  2 17  2  0  0  0  0
  5 20  2  0  0  0  0
  6 29  1  0  0  0  0
  6 34  1  0  0  0  0
  7 27  2  0  0  0  0
  8 12  1  0  0  0  0
  8 16  1  0  0  0  0
  9 15  1  0  0  0  0
  9 20  1  0  0  0  0
  9 50  1  0  0  0  0
 10 19  1  0  0  0  0
 10 27  1  0  0  0  0
 10 55  1  0  0  0  0
 11 23  1  0  0  0  0
 11 30  2  0  0  0  0
 12 13  1  0  0  0  0
 12 18  1  0  0  0  0
 12 39  1  0  0  0  0
 13 14  1  0  0  0  0
 13 40  1  0  0  0  0
 13 41  1  0  0  0  0
 14 15  1  0  0  0  0
 14 42  1  0  0  0  0
 14 43  1  0  0  0  0
 15 17  1  0  0  0  0
 15 44  1  0  0  0  0
 16 17  1  0  0  0  0
 16 45  1  0  0  0  0
 16 46  1  0  0  0  0
 18 47  1  0  0  0  0
 18 48  1  0  0  0  0
 18 49  1  0  0  0  0
 19 20  1  0  0  0  0
 19 21  1  0  0  0  0
 19 51  1  0  0  0  0
 21 22  1  0  0  0  0
 21 52  1  0  0  0  0
 21 53  1  0  0  0  0
 22 24  1  0  0  0  0
 22 25  1  0  0  0  0
 22 54  1  0  0  0  0
 23 26  2  0  0  0  0
 24 56  1  0  0  0  0
 24 57  1  0  0  0  0
 24 58  1  0  0  0  0
 25 59  1  0  0  0  0
 25 60  1  0  0  0  0
 25 61  1  0  0  0  0
 26 28  1  0  0  0  0
 26 62  1  0  0  0  0
 27 29  1  0  0  0  0
 28 31  2  0  0  0  0
 28 63  1  0  0  0  0
 29 32  2  0  0  0  0
 30 31  1  0  0  0  0
 30 64  1  0  0  0  0
 31 65  1  0  0  0  0
 32 33  1  0  0  0  0
 32 66  1  0  0  0  0
 33 34  1  0  0  0  0
 33 35  2  0  0  0  0
 34 36  2  0  0  0  0
 35 37  1  0  0  0  0
 35 67  1  0  0  0  0
 36 38  1  0  0  0  0
 36 68  1  0  0  0  0
 37 38  2  0  0  0  0
 37 69  1  0  0  0  0
 38 70  1  0  0  0  0
M  END
> <PUBCHEM_COMPOUND_CID>
6918602

> <PUBCHEM_CONFORMER_RMSD>
1.2

> <PUBCHEM_CONFORMER_DIVERSEORDER>
1
11
166
122
110
84
63
42
71
171
34
98
97
168
119
106
165
93
151
152
66
132
101
157
79
126
140
65
94
124
45
85
82
173
51
91
109
73
48
164
172
131
78
137
47
104
156
116
38
158
142
175
81
177
99
150
37
162
20
114
167
108
18
149
64
74
128
49
88
107
89
92
59
118
103
26
134
169
28
31
14
56
135
95
17
35
43
54
129
72
102
86
55
130
60
174
133
12
145
5
96
105
39
127
115
136
143
3
120
21
146
40
159
44
90
176
24
155
163
36
77
22
69
75
147
170
53
144
76
161
117
68
46
13
113
62
139
148
154
23
125
83
16
7
80
153
19
6
30
87
25
138
141
33
100
29
27
112
8
50
52
32
4
58
70
160
41
9
123
57
61
10
121
111
67
2
15

> <PUBCHEM_MMFF94_PARTIAL_CHARGES>
41
1 1.45
10 -0.73
11 -0.62
12 0.36
15 0.36
16 0.42
17 0.45
19 0.36
2 -0.57
20 0.57
23 0.3
26 -0.15
27 0.71
28 -0.15
29 0.05
3 -0.65
30 0.16
31 -0.15
32 -0.15
34 0.14
35 -0.15
36 -0.15
37 -0.15
38 -0.15
4 -0.65
5 -0.57
50 0.37
55 0.37
6 -0.28
62 0.15
63 0.15
64 0.15
65 0.15
66 0.15
67 0.15
68 0.15
69 0.15
7 -0.57
70 0.15
8 -0.85
9 -0.73

> <PUBCHEM_EFFECTIVE_ROTOR_COUNT>
11.2

> <PUBCHEM_PHARMACOPHORE_FEATURES>
14
1 10 donor
1 11 acceptor
1 2 acceptor
1 3 acceptor
1 4 acceptor
1 5 acceptor
1 6 acceptor
1 7 acceptor
1 9 donor
3 22 24 25 hydrophobe
5 6 29 32 33 34 rings
6 11 23 26 28 30 31 rings
6 33 34 35 36 37 38 rings
7 8 12 13 14 15 16 17 rings

> <PUBCHEM_HEAVY_ATOM_COUNT>
38

> <PUBCHEM_ATOM_DEF_STEREO_COUNT>
3

> <PUBCHEM_ATOM_UDEF_STEREO_COUNT>
0

> <PUBCHEM_BOND_DEF_STEREO_COUNT>
0

> <PUBCHEM_BOND_UDEF_STEREO_COUNT>
0

> <PUBCHEM_ISOTOPIC_ATOM_COUNT>
0

> <PUBCHEM_COMPONENT_COUNT>
1

> <PUBCHEM_CACTVS_TAUTO_COUNT>
12

> <PUBCHEM_CONFORMER_ID>
006991CA00000001

> <PUBCHEM_MMFF94_ENERGY>
78.7267

> <PUBCHEM_FEATURE_SELFOVERLAP>
71.175

> <PUBCHEM_SHAPE_FINGERPRINT>
10 15 16370727007353770861
10625338 86 17168142292229037669
11991303 11 18408886274407567471
12098696 120 18408888408430943225
12120059 9 16845574202285497030
12202916 173 17561083587776088989
13947934 56 18339639065864248250
14150023 24 18261110738707604539
15142383 8 18341896295086314340
15183329 4 18131633361785317649
15347591 1 18196650916104200704
15439362 3 18269559343206099543
15461852 350 15697997431378450033
15890870 6 18340484479307024705
16992752 21 9079116670064022827
17686467 74 10375866373106158746
1818759 1 9583513235401861589
20105231 36 11386367028713532176
21781055 127 17916302745311861611
22149856 69 12540688198236118524
23729398 52 17908996405168910479
249057 3 18412263938881652840
2747138 104 8574707983890352364
4461854 278 11458432318758192592
4874694 18 17989204842201391806
54039377 194 9727629514610238713
6009941 240 18271809059791276058
6086070 43 18131066086593808882
9962374 69 10807633576974116409

> <PUBCHEM_SHAPE_MULTIPOLES>
730.73
29.82
4.21
1.66
1.98
7.34
-0.39
-21.82
-4.49
7.54
-0.27
-0.45
-0.38
-0.09

> <PUBCHEM_SHAPE_SELFOVERLAP>
1538.54

> <PUBCHEM_SHAPE_VOLUME>
411.3

> <PUBCHEM_COORDINATE_TYPE>
2
5
10

$$$$
