6918141
  -OEChem-05062210143D

 85 87  0     1  0  0  0  0  0999 V2000
    7.1582   -2.9416   -1.0227 O   0  0  0  0  0  0  0  0  0  0  0  0
   -6.8067   -0.6293    0.1649 O   0  0  0  0  0  0  0  0  0  0  0  0
   -7.0642    2.1344   -0.0949 O   0  0  0  0  0  0  0  0  0  0  0  0
   -4.1126    0.2809    2.4595 O   0  0  0  0  0  0  0  0  0  0  0  0
   -5.9907   -3.7295   -1.0991 O   0  0  0  0  0  0  0  0  0  0  0  0
    2.4142    1.6446    0.0280 C   0  0  2  0  0  0  0  0  0  0  0  0
    3.6002    0.7101    0.3794 C   0  0  2  0  0  0  0  0  0  0  0  0
    1.3772    0.5838   -0.4179 C   0  0  1  0  0  0  0  0  0  0  0  0
    2.9400   -0.4768    1.1117 C   0  0  0  0  0  0  0  0  0  0  0  0
    1.4674   -0.4916    0.6693 C   0  0  0  0  0  0  0  0  0  0  0  0
    2.7066    2.6166   -1.1396 C   0  0  0  0  0  0  0  0  0  0  0  0
    4.7435    1.3314    1.1688 C   0  0  1  0  0  0  0  0  0  0  0  0
    0.0553    1.2075   -0.7816 C   0  0  0  0  0  0  0  0  0  0  0  0
    1.9546    2.4608    1.2641 C   0  0  0  0  0  0  0  0  0  0  0  0
    1.5577    2.7162   -2.1619 C   0  0  0  0  0  0  0  0  0  0  0  0
    0.1608    2.5009   -1.5644 C   0  0  0  0  0  0  0  0  0  0  0  0
    5.8506    0.3151    1.5205 C   0  0  0  0  0  0  0  0  0  0  0  0
    5.3079    2.5518    0.4371 C   0  0  0  0  0  0  0  0  0  0  0  0
   -1.1391    0.6859   -0.4661 C   0  0  0  0  0  0  0  0  0  0  0  0
    6.4923   -0.3946    0.3214 C   0  0  0  0  0  0  0  0  0  0  0  0
    7.5384   -1.4140    0.7870 C   0  0  0  0  0  0  0  0  0  0  0  0
   -2.3914    1.2971   -0.8363 C   0  0  0  0  0  0  0  0  0  0  0  0
    8.2025   -2.2422   -0.3320 C   0  0  0  0  0  0  0  0  0  0  0  0
   -3.5874    0.7754   -0.5208 C   0  0  0  0  0  0  0  0  0  0  0  0
   -4.8766    1.4693   -0.8871 C   0  0  0  0  0  0  0  0  0  0  0  0
    9.1776   -3.2881    0.2128 C   0  0  0  0  0  0  0  0  0  0  0  0
    8.8971   -1.3607   -1.3706 C   0  0  0  0  0  0  0  0  0  0  0  0
   -3.7362   -0.4689    0.2322 C   0  0  0  0  0  0  0  0  0  0  0  0
   -5.8126    1.5951    0.3180 C   0  0  2  0  0  0  0  0  0  0  0  0
   -4.7211   -0.4354    1.3841 C   0  0  2  0  0  0  0  0  0  0  0  0
   -6.0481    0.2416    1.0046 C   0  0  2  0  0  0  0  0  0  0  0  0
   -3.0907   -1.5975   -0.1052 C   0  0  0  0  0  0  0  0  0  0  0  0
   -7.0967   -1.8528    0.8215 C   0  0  0  0  0  0  0  0  0  0  0  0
   -7.9242   -2.7445   -0.0910 C   0  0  0  0  0  0  0  0  0  0  0  0
   -7.2038   -3.0511   -1.3936 C   0  0  0  0  0  0  0  0  0  0  0  0
    3.9952    0.3251   -0.5714 H   0  0  0  0  0  0  0  0  0  0  0  0
    1.7440    0.1085   -1.3429 H   0  0  0  0  0  0  0  0  0  0  0  0
    3.4338   -1.4192    0.8501 H   0  0  0  0  0  0  0  0  0  0  0  0
    2.9907   -0.3710    2.2015 H   0  0  0  0  0  0  0  0  0  0  0  0
    1.1757   -1.4766    0.2891 H   0  0  0  0  0  0  0  0  0  0  0  0
    0.8215   -0.2652    1.5256 H   0  0  0  0  0  0  0  0  0  0  0  0
    2.9007    3.6278   -0.7638 H   0  0  0  0  0  0  0  0  0  0  0  0
    3.5991    2.3143   -1.6983 H   0  0  0  0  0  0  0  0  0  0  0  0
    4.3654    1.6894    2.1355 H   0  0  0  0  0  0  0  0  0  0  0  0
    1.0277    3.0088    1.0715 H   0  0  0  0  0  0  0  0  0  0  0  0
    2.6950    3.2098    1.5603 H   0  0  0  0  0  0  0  0  0  0  0  0
    1.7728    1.8270    2.1378 H   0  0  0  0  0  0  0  0  0  0  0  0
    1.6009    3.6898   -2.6645 H   0  0  0  0  0  0  0  0  0  0  0  0
    1.7230    1.9649   -2.9463 H   0  0  0  0  0  0  0  0  0  0  0  0
   -0.0832    3.3490   -0.9141 H   0  0  0  0  0  0  0  0  0  0  0  0
   -0.5391    2.5103   -2.4078 H   0  0  0  0  0  0  0  0  0  0  0  0
    6.6355    0.8306    2.0896 H   0  0  0  0  0  0  0  0  0  0  0  0
    5.4404   -0.4398    2.2030 H   0  0  0  0  0  0  0  0  0  0  0  0
    4.6427    3.4146    0.4781 H   0  0  0  0  0  0  0  0  0  0  0  0
    6.2365    2.8791    0.9203 H   0  0  0  0  0  0  0  0  0  0  0  0
    5.5570    2.3295   -0.6047 H   0  0  0  0  0  0  0  0  0  0  0  0
   -1.1252   -0.2090    0.1391 H   0  0  0  0  0  0  0  0  0  0  0  0
    5.7312   -0.9166   -0.2655 H   0  0  0  0  0  0  0  0  0  0  0  0
    6.9598    0.3506   -0.3297 H   0  0  0  0  0  0  0  0  0  0  0  0
    8.3166   -0.8941    1.3604 H   0  0  0  0  0  0  0  0  0  0  0  0
    7.0446   -2.1080    1.4806 H   0  0  0  0  0  0  0  0  0  0  0  0
   -2.3822    2.2375   -1.3774 H   0  0  0  0  0  0  0  0  0  0  0  0
   -5.3755    0.9079   -1.6887 H   0  0  0  0  0  0  0  0  0  0  0  0
   -4.6943    2.4678   -1.3049 H   0  0  0  0  0  0  0  0  0  0  0  0
    8.6661   -3.9740    0.8974 H   0  0  0  0  0  0  0  0  0  0  0  0
   10.0080   -2.8179    0.7493 H   0  0  0  0  0  0  0  0  0  0  0  0
    9.5893   -3.9055   -0.5936 H   0  0  0  0  0  0  0  0  0  0  0  0
    9.6511   -0.7161   -0.9074 H   0  0  0  0  0  0  0  0  0  0  0  0
    8.1820   -0.7343   -1.9144 H   0  0  0  0  0  0  0  0  0  0  0  0
    9.3940   -1.9730   -2.1326 H   0  0  0  0  0  0  0  0  0  0  0  0
   -5.3830    2.3002    1.0402 H   0  0  0  0  0  0  0  0  0  0  0  0
   -4.8403   -1.4332    1.8006 H   0  0  0  0  0  0  0  0  0  0  0  0
   -6.6424    0.4376    1.9078 H   0  0  0  0  0  0  0  0  0  0  0  0
    7.5648   -3.4690   -1.7314 H   0  0  0  0  0  0  0  0  0  0  0  0
   -3.2373   -2.5112    0.4628 H   0  0  0  0  0  0  0  0  0  0  0  0
   -2.4453   -1.6735   -0.9742 H   0  0  0  0  0  0  0  0  0  0  0  0
   -6.8886    2.9911   -0.5199 H   0  0  0  0  0  0  0  0  0  0  0  0
   -3.8697    1.1702    2.1530 H   0  0  0  0  0  0  0  0  0  0  0  0
   -6.2083   -2.4312    1.0727 H   0  0  0  0  0  0  0  0  0  0  0  0
   -7.6607   -1.6561    1.7408 H   0  0  0  0  0  0  0  0  0  0  0  0
   -8.1508   -3.6776    0.4378 H   0  0  0  0  0  0  0  0  0  0  0  0
   -8.8728   -2.2486   -0.3267 H   0  0  0  0  0  0  0  0  0  0  0  0
   -7.8210   -3.7012   -2.0218 H   0  0  0  0  0  0  0  0  0  0  0  0
   -6.9736   -2.1401   -1.9548 H   0  0  0  0  0  0  0  0  0  0  0  0
   -5.5523   -3.9117   -1.9477 H   0  0  0  0  0  0  0  0  0  0  0  0
  1 23  1  0  0  0  0
  1 74  1  0  0  0  0
  2 31  1  0  0  0  0
  2 33  1  0  0  0  0
  3 29  1  0  0  0  0
  3 77  1  0  0  0  0
  4 30  1  0  0  0  0
  4 78  1  0  0  0  0
  5 35  1  0  0  0  0
  5 85  1  0  0  0  0
  6  7  1  0  0  0  0
  6  8  1  0  0  0  0
  6 11  1  0  0  0  0
  6 14  1  0  0  0  0
  7  9  1  0  0  0  0
  7 12  1  0  0  0  0
  7 36  1  0  0  0  0
  8 10  1  0  0  0  0
  8 13  1  0  0  0  0
  8 37  1  0  0  0  0
  9 10  1  0  0  0  0
  9 38  1  0  0  0  0
  9 39  1  0  0  0  0
 10 40  1  0  0  0  0
 10 41  1  0  0  0  0
 11 15  1  0  0  0  0
 11 42  1  0  0  0  0
 11 43  1  0  0  0  0
 12 17  1  0  0  0  0
 12 18  1  0  0  0  0
 12 44  1  0  0  0  0
 13 16  1  0  0  0  0
 13 19  2  0  0  0  0
 14 45  1  0  0  0  0
 14 46  1  0  0  0  0
 14 47  1  0  0  0  0
 15 16  1  0  0  0  0
 15 48  1  0  0  0  0
 15 49  1  0  0  0  0
 16 50  1  0  0  0  0
 16 51  1  0  0  0  0
 17 20  1  0  0  0  0
 17 52  1  0  0  0  0
 17 53  1  0  0  0  0
 18 54  1  0  0  0  0
 18 55  1  0  0  0  0
 18 56  1  0  0  0  0
 19 22  1  0  0  0  0
 19 57  1  0  0  0  0
 20 21  1  0  0  0  0
 20 58  1  0  0  0  0
 20 59  1  0  0  0  0
 21 23  1  0  0  0  0
 21 60  1  0  0  0  0
 21 61  1  0  0  0  0
 22 24  2  0  0  0  0
 22 62  1  0  0  0  0
 23 26  1  0  0  0  0
 23 27  1  0  0  0  0
 24 25  1  0  0  0  0
 24 28  1  0  0  0  0
 25 29  1  0  0  0  0
 25 63  1  0  0  0  0
 25 64  1  0  0  0  0
 26 65  1  0  0  0  0
 26 66  1  0  0  0  0
 26 67  1  0  0  0  0
 27 68  1  0  0  0  0
 27 69  1  0  0  0  0
 27 70  1  0  0  0  0
 28 30  1  0  0  0  0
 28 32  2  0  0  0  0
 29 31  1  0  0  0  0
 29 71  1  0  0  0  0
 30 31  1  0  0  0  0
 30 72  1  0  0  0  0
 31 73  1  0  0  0  0
 32 75  1  0  0  0  0
 32 76  1  0  0  0  0
 33 34  1  0  0  0  0
 33 79  1  0  0  0  0
 33 80  1  0  0  0  0
 34 35  1  0  0  0  0
 34 81  1  0  0  0  0
 34 82  1  0  0  0  0
 35 83  1  0  0  0  0
 35 84  1  0  0  0  0
M  END
> <PUBCHEM_COMPOUND_CID>
6918141

> <PUBCHEM_CONFORMER_RMSD>
1.2

> <PUBCHEM_CONFORMER_DIVERSEORDER>
3
16
11
1
15
19
17
25
9
21
27
32
5
22
18
20
23
26
31
13
24
8
12
14
28
2
10
29
7
30
6
4

> <PUBCHEM_MMFF94_PARTIAL_CHARGES>
28
1 -0.68
13 -0.28
16 0.14
19 -0.15
2 -0.56
22 -0.15
23 0.28
24 -0.14
25 0.14
28 -0.14
29 0.28
3 -0.68
30 0.42
31 0.28
32 -0.3
33 0.28
35 0.28
4 -0.68
5 -0.68
57 0.15
62 0.15
74 0.4
75 0.15
76 0.15
77 0.4
78 0.4
8 0.14
85 0.4

> <PUBCHEM_EFFECTIVE_ROTOR_COUNT>
12

> <PUBCHEM_PHARMACOPHORE_FEATURES>
15
1 1 acceptor
1 1 donor
1 18 hydrophobe
1 2 acceptor
1 3 acceptor
1 3 donor
1 4 acceptor
1 4 donor
1 5 acceptor
1 5 donor
3 23 26 27 hydrophobe
4 12 17 20 21 hydrophobe
5 6 7 8 9 10 rings
6 24 25 28 29 30 31 rings
6 6 8 11 13 15 16 rings

> <PUBCHEM_HEAVY_ATOM_COUNT>
35

> <PUBCHEM_ATOM_DEF_STEREO_COUNT>
7

> <PUBCHEM_ATOM_UDEF_STEREO_COUNT>
0

> <PUBCHEM_BOND_DEF_STEREO_COUNT>
2

> <PUBCHEM_BOND_UDEF_STEREO_COUNT>
0

> <PUBCHEM_ISOTOPIC_ATOM_COUNT>
0

> <PUBCHEM_COMPONENT_COUNT>
1

> <PUBCHEM_CACTVS_TAUTO_COUNT>
1

> <PUBCHEM_CONFORMER_ID>
00698FFD00000003

> <PUBCHEM_MMFF94_ENERGY>
110.9409

> <PUBCHEM_FEATURE_SELFOVERLAP>
76.199

> <PUBCHEM_SHAPE_FINGERPRINT>
11672396 43 18342184396543740683
12013929 27 17606678300353085975
12592606 108 18412544314705801930
12645989 146 18260267477749902791
13165053 103 18267864072892643143
13673619 4 18338233770467695632
13782708 43 18337380612871979904
13811026 1 18259983795049388466
14428016 167 18409443683273181306
14747282 305 18201996604047040198
15064986 96 17489591134526044774
15131766 46 16197581538519496712
15301273 46 18410571748138505016
15361156 5 17676209044237956061
15392192 29 17531824458543898057
16728433 281 13335552637995053095
16991971 28 18040438797904059638
16994733 274 7997966860854610924
20105231 36 17967821504912953234
2026 5 18335983073912505706
21130935 74 18342734165257796016
21267235 1 18040719155772905644
21585481 151 18411982434230827458
23559900 14 16806730784322285189
23569917 315 18337113475177449379
23569943 247 18266736888331123714
255183 451 18113901580872362924
3504750 166 18412259563196123821
3918712 181 10087640377926636142
4015057 19 17532091790889842725
4516262 110 17535749929403166476
5028188 123 18408326571248630700
5265222 85 11386371443734261985
5470011 282 15068627063677745170
57816373 69 18337388343881645684
5937810 71 10881672486955296191
6691757 9 15267331925476621885
9831232 110 18341334397410534558
9962374 69 18409444817787352734
9980921 221 15791994659647915591

> <PUBCHEM_SHAPE_MULTIPOLES>
690.94
28.21
3.9
1.58
14.26
1.92
-0.04
29.63
0.22
0.83
1.64
0.03
-0.36
-0.03

> <PUBCHEM_SHAPE_SELFOVERLAP>
1412.551

> <PUBCHEM_SHAPE_VOLUME>
399.1

> <PUBCHEM_COORDINATE_TYPE>
2
5
10

$$$$
