6918446
  -OEChem-05062210143D

 54 56  0     1  0  0  0  0  0999 V2000
    2.0877   -4.2753    0.6450 Cl  0  0  0  0  0  0  0  0  0  0  0  0
    3.6517    3.2255    1.4897 O   0  0  0  0  0  0  0  0  0  0  0  0
    3.7363    0.5981    0.5839 O   0  0  0  0  0  0  0  0  0  0  0  0
    1.1725    2.3288   -1.1023 N   0  0  0  0  0  0  0  0  0  0  0  0
    1.4614   -1.1862    2.6269 N   0  0  0  0  0  0  0  0  0  0  0  0
   -0.2887    2.1530   -1.0304 C   0  0  0  0  0  0  0  0  0  0  0  0
   -0.6015    1.0502    0.0283 C   0  0  0  0  0  0  0  0  0  0  0  0
   -0.8893    3.5108   -0.6416 C   0  0  0  0  0  0  0  0  0  0  0  0
   -0.7671    1.7556   -2.4336 C   0  0  0  0  0  0  0  0  0  0  0  0
    1.7003    2.6976    0.1977 C   0  0  0  0  0  0  0  0  0  0  0  0
   -2.0349    0.6866    0.2234 C   0  0  0  0  0  0  0  0  0  0  0  0
    3.2163    2.9046    0.1655 C   0  0  2  0  0  0  0  0  0  0  0  0
   -2.6064   -0.3318   -0.5399 C   0  0  0  0  0  0  0  0  0  0  0  0
   -2.8016    1.3635    1.1672 C   0  0  0  0  0  0  0  0  0  0  0  0
    3.9846    1.6751   -0.3143 C   0  0  0  0  0  0  0  0  0  0  0  0
   -3.9546   -0.6859   -0.3681 C   0  0  0  0  0  0  0  0  0  0  0  0
   -4.7341    0.0024    0.5917 C   0  0  0  0  0  0  0  0  0  0  0  0
   -4.1424    1.0247    1.3515 C   0  0  0  0  0  0  0  0  0  0  0  0
   -4.5460   -1.7085   -1.1277 C   0  0  0  0  0  0  0  0  0  0  0  0
   -6.0823   -0.3518    0.7635 C   0  0  0  0  0  0  0  0  0  0  0  0
   -5.8869   -2.0472   -0.9440 C   0  0  0  0  0  0  0  0  0  0  0  0
   -6.6535   -1.3700   -0.0004 C   0  0  0  0  0  0  0  0  0  0  0  0
    3.7586   -0.6637    0.0526 C   0  0  0  0  0  0  0  0  0  0  0  0
    2.9803   -1.6861    0.5883 C   0  0  0  0  0  0  0  0  0  0  0  0
    4.5848   -0.9071   -1.0414 C   0  0  0  0  0  0  0  0  0  0  0  0
    3.0283   -2.9617    0.0257 C   0  0  0  0  0  0  0  0  0  0  0  0
    4.6328   -2.1825   -1.6040 C   0  0  0  0  0  0  0  0  0  0  0  0
    3.8545   -3.2097   -1.0705 C   0  0  0  0  0  0  0  0  0  0  0  0
    2.1391   -1.4092    1.7173 C   0  0  0  0  0  0  0  0  0  0  0  0
   -0.2581    1.3338    1.0284 H   0  0  0  0  0  0  0  0  0  0  0  0
   -0.0386    0.1386   -0.2201 H   0  0  0  0  0  0  0  0  0  0  0  0
    1.4084    3.0461   -1.7878 H   0  0  0  0  0  0  0  0  0  0  0  0
   -1.9677    3.5221   -0.8431 H   0  0  0  0  0  0  0  0  0  0  0  0
   -0.4612    4.3337   -1.2273 H   0  0  0  0  0  0  0  0  0  0  0  0
   -0.7794    3.7484    0.4215 H   0  0  0  0  0  0  0  0  0  0  0  0
   -1.8590    1.6905   -2.4861 H   0  0  0  0  0  0  0  0  0  0  0  0
   -0.4587    2.4936   -3.1843 H   0  0  0  0  0  0  0  0  0  0  0  0
   -0.3553    0.7856   -2.7354 H   0  0  0  0  0  0  0  0  0  0  0  0
    1.2760    3.6311    0.5808 H   0  0  0  0  0  0  0  0  0  0  0  0
    1.5352    1.9397    0.9666 H   0  0  0  0  0  0  0  0  0  0  0  0
    3.4672    3.7551   -0.4797 H   0  0  0  0  0  0  0  0  0  0  0  0
   -1.9993   -0.8585   -1.2742 H   0  0  0  0  0  0  0  0  0  0  0  0
   -2.3707    2.1580    1.7708 H   0  0  0  0  0  0  0  0  0  0  0  0
    3.6811    1.4520   -1.3445 H   0  0  0  0  0  0  0  0  0  0  0  0
    5.0596    1.8905   -0.2910 H   0  0  0  0  0  0  0  0  0  0  0  0
   -4.7226    1.5670    2.0952 H   0  0  0  0  0  0  0  0  0  0  0  0
    3.1981    4.0427    1.7579 H   0  0  0  0  0  0  0  0  0  0  0  0
   -3.9658   -2.2512   -1.8711 H   0  0  0  0  0  0  0  0  0  0  0  0
   -6.7004    0.1639    1.4955 H   0  0  0  0  0  0  0  0  0  0  0  0
   -6.3322   -2.8399   -1.5381 H   0  0  0  0  0  0  0  0  0  0  0  0
   -7.6973   -1.6342    0.1421 H   0  0  0  0  0  0  0  0  0  0  0  0
    5.2365   -0.1509   -1.4683 H   0  0  0  0  0  0  0  0  0  0  0  0
    5.2825   -2.3784   -2.4520 H   0  0  0  0  0  0  0  0  0  0  0  0
    3.9057   -4.1982   -1.5201 H   0  0  0  0  0  0  0  0  0  0  0  0
  1 26  1  0  0  0  0
  2 12  1  0  0  0  0
  2 47  1  0  0  0  0
  3 15  1  0  0  0  0
  3 23  1  0  0  0  0
  4  6  1  0  0  0  0
  4 10  1  0  0  0  0
  4 32  1  0  0  0  0
  5 29  3  0  0  0  0
  6  7  1  0  0  0  0
  6  8  1  0  0  0  0
  6  9  1  0  0  0  0
  7 11  1  0  0  0  0
  7 30  1  0  0  0  0
  7 31  1  0  0  0  0
  8 33  1  0  0  0  0
  8 34  1  0  0  0  0
  8 35  1  0  0  0  0
  9 36  1  0  0  0  0
  9 37  1  0  0  0  0
  9 38  1  0  0  0  0
 10 12  1  0  0  0  0
 10 39  1  0  0  0  0
 10 40  1  0  0  0  0
 11 13  2  0  0  0  0
 11 14  1  0  0  0  0
 12 15  1  0  0  0  0
 12 41  1  0  0  0  0
 13 16  1  0  0  0  0
 13 42  1  0  0  0  0
 14 18  2  0  0  0  0
 14 43  1  0  0  0  0
 15 44  1  0  0  0  0
 15 45  1  0  0  0  0
 16 17  1  0  0  0  0
 16 19  2  0  0  0  0
 17 18  1  0  0  0  0
 17 20  2  0  0  0  0
 18 46  1  0  0  0  0
 19 21  1  0  0  0  0
 19 48  1  0  0  0  0
 20 22  1  0  0  0  0
 20 49  1  0  0  0  0
 21 22  2  0  0  0  0
 21 50  1  0  0  0  0
 22 51  1  0  0  0  0
 23 24  2  0  0  0  0
 23 25  1  0  0  0  0
 24 26  1  0  0  0  0
 24 29  1  0  0  0  0
 25 27  2  0  0  0  0
 25 52  1  0  0  0  0
 26 28  2  0  0  0  0
 27 28  1  0  0  0  0
 27 53  1  0  0  0  0
 28 54  1  0  0  0  0
M  END
> <PUBCHEM_COMPOUND_CID>
6918446

> <PUBCHEM_CONFORMER_RMSD>
1.2

> <PUBCHEM_CONFORMER_DIVERSEORDER>
1
15
225
16
41
212
195
323
260
556
514
120
84
39
333
399
244
149
507
232
436
14
401
67
304
10
464
348
243
167
343
231
280
356
111
157
6
527
425
309
475
109
24
49
123
19
226
550
444
216
124
185
52
357
407
28
115
184
281
164
385
5
435
267
12
339
278
394
71
546
233
116
159
198
4
381
40
494
61
409
266
127
413
7
440
139
472
474
183
227
328
3
497
47
70
110
211
108
239
93
445
170
86
83
206
512
169
59
42
9
457
493
174
269
25
519
45
2
303
150
60
290
314
315
13
64
326
395
178
102
168
8
27
92
312
99
161
173
97
518
255
137
223
55
112
200
95
202
387
91
526
48
359
36
72
63
245
87
90
76
126
547
228
237
358
73
214
346
128
217
177
32
446
54
424
492
400
29
65
520
98
50
426
141
353
384
57
75
476
81
21
204
375
412
273
530
379
79
38
277
453
131
44
284
209
22
190
555
459
125
482
461
318
503

> <PUBCHEM_MMFF94_PARTIAL_CHARGES>
37
1 -0.18
10 0.27
11 -0.14
12 0.28
13 -0.15
14 -0.15
15 0.28
18 -0.15
19 -0.15
2 -0.68
20 -0.15
21 -0.15
22 -0.15
23 0.08
24 0.07
25 -0.15
26 0.18
27 -0.15
28 -0.15
29 0.48
3 -0.36
32 0.36
4 -0.9
42 0.15
43 0.15
46 0.15
47 0.4
48 0.15
49 0.15
5 -0.56
50 0.15
51 0.15
52 0.15
53 0.15
54 0.15
6 0.27
7 0.14

> <PUBCHEM_EFFECTIVE_ROTOR_COUNT>
8

> <PUBCHEM_PHARMACOPHORE_FEATURES>
10
1 2 acceptor
1 2 donor
1 3 acceptor
1 4 cation
1 4 donor
1 5 acceptor
3 6 8 9 hydrophobe
6 11 13 14 16 17 18 rings
6 16 17 19 20 21 22 rings
6 23 24 25 26 27 28 rings

> <PUBCHEM_HEAVY_ATOM_COUNT>
29

> <PUBCHEM_ATOM_DEF_STEREO_COUNT>
1

> <PUBCHEM_ATOM_UDEF_STEREO_COUNT>
0

> <PUBCHEM_BOND_DEF_STEREO_COUNT>
0

> <PUBCHEM_BOND_UDEF_STEREO_COUNT>
0

> <PUBCHEM_ISOTOPIC_ATOM_COUNT>
0

> <PUBCHEM_COMPONENT_COUNT>
1

> <PUBCHEM_CACTVS_TAUTO_COUNT>
1

> <PUBCHEM_CONFORMER_ID>
0069912E00000001

> <PUBCHEM_MMFF94_ENERGY>
82.4203

> <PUBCHEM_FEATURE_SELFOVERLAP>
50.776

> <PUBCHEM_SHAPE_FINGERPRINT>
10369192 42 17414966284327470824
10928967 22 18193002521242553698
114674 6 18408040732426846074
11552529 35 18127129658683028145
12107183 9 17984999098112803233
12596602 18 17702668898670986193
13150687 139 17752226109177559404
13533116 47 18271530883275653921
13583140 156 17774985917265881593
1361 2 18337673121640760099
13617811 41 15430310361505199543
13692114 37 17983286321321593936
14251740 57 18342458157658583871
14429115 67 18412266151159296429
14863182 85 18262236758815340428
15001296 14 18339077219870513327
150020 26 16198471905838691022
15003188 105 18040988519348062986
15664445 248 17385446535630945340
15721738 202 18273223018564444779
17818456 19 18128546972627826497
1813 80 18334849499024926027
20511986 3 18129933611493248197
20775438 99 17468987325787064237
20775530 9 17897733050554298010
21285901 2 17531232998428670205
23379529 103 17406562407640384422
23559900 14 18201716198495320001
3117164 225 18127981814929294105
3737641 26 18337959974216815876
463206 1 18189898793512078135
5081480 168 15864085286295329541
5309563 4 18338800018190661380
70251023 43 18336268942281096186
77296 10 18342178882375282185
86090 222 17968103065704496947

> <PUBCHEM_SHAPE_MULTIPOLES>
576.98
13.53
4.72
1.7
15.58
0.17
0.11
8.65
-0.77
-5.48
-0.32
-0.46
0.02
0.03

> <PUBCHEM_SHAPE_SELFOVERLAP>
1224.725

> <PUBCHEM_SHAPE_VOLUME>
322.1

> <PUBCHEM_COORDINATE_TYPE>
2
5
10

$$$$
