160254
  -OEChem-05282205423D

 42 45  0     1  0  0  0  0  0999 V2000
    2.6225    2.2197    0.1458 O   0  0  0  0  0  0  0  0  0  0  0  0
    0.4923   -2.7324   -0.3709 O   0  0  0  0  0  0  0  0  0  0  0  0
    3.0302   -2.4111    0.3383 O   0  0  0  0  0  0  0  0  0  0  0  0
   -3.8037    0.5847   -0.0897 C   0  0  0  0  0  0  0  0  0  0  0  0
   -4.3227   -0.8322   -0.4290 C   0  0  0  0  0  0  0  0  0  0  0  0
   -2.2678    0.6334   -0.0408 C   0  0  0  0  0  0  0  0  0  0  0  0
   -1.4701   -0.5396   -0.0047 C   0  0  0  0  0  0  0  0  0  0  0  0
   -3.6042   -1.9000    0.3723 C   0  0  0  0  0  0  0  0  0  0  0  0
   -2.1256   -1.9045    0.0123 C   0  0  0  0  0  0  0  0  0  0  0  0
   -0.0528   -0.4135   -0.0043 C   0  0  0  0  0  0  0  0  0  0  0  0
   -4.3695    1.5295   -1.1767 C   0  0  0  0  0  0  0  0  0  0  0  0
   -4.3617    1.0305    1.2803 C   0  0  0  0  0  0  0  0  0  0  0  0
    0.5606    0.8570    0.0446 C   0  0  0  0  0  0  0  0  0  0  0  0
   -1.6278    1.8860    0.0076 C   0  0  0  0  0  0  0  0  0  0  0  0
    2.0159    0.9725    0.0884 C   0  0  0  0  0  0  0  0  0  0  0  0
    2.8436   -0.0616    0.1442 C   0  0  0  0  0  0  0  0  0  0  0  0
    4.2381    0.4105    0.2673 C   0  0  2  0  0  0  0  0  0  0  0  0
   -0.2408    1.9978    0.0556 C   0  0  0  0  0  0  0  0  0  0  0  0
    0.8564   -1.6026   -0.0842 C   0  0  0  0  0  0  0  0  0  0  0  0
    4.0279    1.9107   -0.0022 C   0  0  0  0  0  0  0  0  0  0  0  0
    2.3338   -1.4260    0.1563 C   0  0  0  0  0  0  0  0  0  0  0  0
    5.2256   -0.2087   -0.7105 C   0  0  0  0  0  0  0  0  0  0  0  0
   -4.1784   -1.0423   -1.4981 H   0  0  0  0  0  0  0  0  0  0  0  0
   -5.4025   -0.8991   -0.2458 H   0  0  0  0  0  0  0  0  0  0  0  0
   -4.0347   -2.8850    0.1575 H   0  0  0  0  0  0  0  0  0  0  0  0
   -3.7333   -1.7308    1.4473 H   0  0  0  0  0  0  0  0  0  0  0  0
   -2.0044   -2.3539   -0.9812 H   0  0  0  0  0  0  0  0  0  0  0  0
   -1.6285   -2.5470    0.7477 H   0  0  0  0  0  0  0  0  0  0  0  0
   -4.1838    2.5852   -0.9531 H   0  0  0  0  0  0  0  0  0  0  0  0
   -5.4559    1.4133   -1.2696 H   0  0  0  0  0  0  0  0  0  0  0  0
   -3.9254    1.3167   -2.1563 H   0  0  0  0  0  0  0  0  0  0  0  0
   -3.9552    0.4322    2.1029 H   0  0  0  0  0  0  0  0  0  0  0  0
   -5.4538    0.9432    1.3092 H   0  0  0  0  0  0  0  0  0  0  0  0
   -4.1148    2.0768    1.4957 H   0  0  0  0  0  0  0  0  0  0  0  0
   -2.2072    2.8057    0.0210 H   0  0  0  0  0  0  0  0  0  0  0  0
    4.5911    0.2593    1.2945 H   0  0  0  0  0  0  0  0  0  0  0  0
    0.1945    2.9935    0.0968 H   0  0  0  0  0  0  0  0  0  0  0  0
    4.5962    2.5245    0.7050 H   0  0  0  0  0  0  0  0  0  0  0  0
    4.3271    2.2001   -1.0173 H   0  0  0  0  0  0  0  0  0  0  0  0
    4.8755   -0.1279   -1.7457 H   0  0  0  0  0  0  0  0  0  0  0  0
    6.1981    0.2901   -0.6426 H   0  0  0  0  0  0  0  0  0  0  0  0
    5.3796   -1.2707   -0.4931 H   0  0  0  0  0  0  0  0  0  0  0  0
  1 15  1  0  0  0  0
  1 20  1  0  0  0  0
  2 19  2  0  0  0  0
  3 21  2  0  0  0  0
  4  5  1  0  0  0  0
  4  6  1  0  0  0  0
  4 11  1  0  0  0  0
  4 12  1  0  0  0  0
  5  8  1  0  0  0  0
  5 23  1  0  0  0  0
  5 24  1  0  0  0  0
  6  7  2  0  0  0  0
  6 14  1  0  0  0  0
  7  9  1  0  0  0  0
  7 10  1  0  0  0  0
  8  9  1  0  0  0  0
  8 25  1  0  0  0  0
  8 26  1  0  0  0  0
  9 27  1  0  0  0  0
  9 28  1  0  0  0  0
 10 13  2  0  0  0  0
 10 19  1  0  0  0  0
 11 29  1  0  0  0  0
 11 30  1  0  0  0  0
 11 31  1  0  0  0  0
 12 32  1  0  0  0  0
 12 33  1  0  0  0  0
 12 34  1  0  0  0  0
 13 15  1  0  0  0  0
 13 18  1  0  0  0  0
 14 18  2  0  0  0  0
 14 35  1  0  0  0  0
 15 16  2  0  0  0  0
 16 17  1  0  0  0  0
 16 21  1  0  0  0  0
 17 20  1  0  0  0  0
 17 22  1  0  0  0  0
 17 36  1  0  0  0  0
 18 37  1  0  0  0  0
 19 21  1  0  0  0  0
 20 38  1  0  0  0  0
 20 39  1  0  0  0  0
 22 40  1  0  0  0  0
 22 41  1  0  0  0  0
 22 42  1  0  0  0  0
M  END
> <PUBCHEM_COMPOUND_CID>
160254

> <PUBCHEM_CONFORMER_RMSD>
0.6

> <PUBCHEM_CONFORMER_DIVERSEORDER>
1

> <PUBCHEM_MMFF94_PARTIAL_CHARGES>
19
1 -0.36
10 0.09
13 0.03
14 -0.15
15 0.05
16 -0.12
17 0.14
18 -0.15
19 0.48
2 -0.57
20 0.28
21 0.56
3 -0.57
35 0.15
37 0.15
4 0.14
6 -0.14
7 -0.14
9 0.14

> <PUBCHEM_EFFECTIVE_ROTOR_COUNT>
1.4

> <PUBCHEM_PHARMACOPHORE_FEATURES>
8
1 1 acceptor
1 2 acceptor
1 3 acceptor
3 4 11 12 hydrophobe
5 1 15 16 17 20 rings
6 10 13 15 16 19 21 rings
6 4 5 6 7 8 9 rings
6 6 7 10 13 14 18 rings

> <PUBCHEM_HEAVY_ATOM_COUNT>
22

> <PUBCHEM_ATOM_DEF_STEREO_COUNT>
1

> <PUBCHEM_ATOM_UDEF_STEREO_COUNT>
0

> <PUBCHEM_BOND_DEF_STEREO_COUNT>
0

> <PUBCHEM_BOND_UDEF_STEREO_COUNT>
0

> <PUBCHEM_ISOTOPIC_ATOM_COUNT>
0

> <PUBCHEM_COMPONENT_COUNT>
1

> <PUBCHEM_CACTVS_TAUTO_COUNT>
1

> <PUBCHEM_CONFORMER_ID>
000271FE00000001

> <PUBCHEM_MMFF94_ENERGY>
67.5371

> <PUBCHEM_FEATURE_SELFOVERLAP>
40.724

> <PUBCHEM_SHAPE_FINGERPRINT>
10411042 1 16681190951654661450
10498660 4 18409729568996169084
10608611 8 18408599254031601717
10616163 171 18411702110083708559
10759866 29 18113899347351821938
10967382 1 18411135818656072576
11132069 177 18408878551212096977
11471102 20 18339073796295872484
11578080 2 16952239920438188358
12011746 2 18410293584328060508
12107183 9 17837215870336870625
12236239 1 17703790314890200425
12403259 415 18339921614303403024
12403814 3 17749105582880363893
12553582 1 18411979131142572561
12633257 1 18267303127738259491
12644460 14 18261394403990548722
12788726 201 17273985627598209537
12954195 1 18057905571162090404
13140716 1 18410299073328283555
13224815 77 18410011048199002369
138480 1 17834394523242209346
14223421 5 18409165484991741093
14790565 3 18265622163617857484
15196674 1 18411136978318412944
15442244 35 18267303127574573130
15536298 74 18342738511743548330
15788980 27 17821445755195156033
1601671 61 18408041801799869148
16945 1 18268149751501495769
17492 89 18409445877817074299
1813 80 17240488008966177397
18186145 218 18413673504161772597
19591789 44 18267585895463111690
200 152 17917710214373152809
20645477 56 18114178602120714621
20645477 70 18337664205478297871
21267235 1 18339088180447600579
21279426 13 18411141299393240214
21421861 104 17969215629906768482
21501502 16 18413106152246655067
21709351 56 18408317813288139828
221490 88 18409172099479163122
22393880 68 18411980269219060030
2334 1 18339359776904441991
23402539 116 18343014527917143836
23559900 14 18339918208726484226
2748010 2 18339361967105459551
2871803 45 18409444821306859966
3004659 81 18334301938561831766
335352 9 18266457603153964583
34934 24 18408879616680198521
350125 39 18410292489443890920
3545911 37 18408887330214732253
4214541 1 18410292527666040905
4280585 95 17622736319383405862
4409770 3 16528055851104447374
4990 188 18060147539589679540
5104073 3 18410572902835556746
58051976 378 18341892965869319212
59755656 215 18337955584923834958
633830 44 18202567288866802332
7364860 26 18341050701429160246
9709674 26 18410857642119696023

> <PUBCHEM_SHAPE_MULTIPOLES>
435.14
9.61
2.65
0.8
1.43
0.68
0
-1.44
0.55
0.18
0
-0.54
-0.14
0.18

> <PUBCHEM_SHAPE_SELFOVERLAP>
966.345

> <PUBCHEM_SHAPE_VOLUME>
232.8

> <PUBCHEM_COORDINATE_TYPE>
2
5
10

$$$$
